"""
How to Use 5-text_indentation.py
"""

"""
This module defines a text-indentation function `text_indentation(text)`.

Usage
=====

Text is printed with two new lines after each of the characters `.`, `?`,
and `:`.

Example 1:
    >>> text_indentation("Hello?")
    Hello?

Example 2:
    >>> text_indentation("   Hi there.")
    Hi there.

Example 3:
    >>> text_indentation("          ")

Example 4:
    >>> text_indentation("Hello.   ")
    Hello.

Example 5:
    >>> text_indentation("    Woah now.    This is messy.   ")
    Woah now.

    This is messy.

Example 6:
    >>> text_indentation("No ending period, what bad grammar")
    No ending period, what bad grammar

Example 7:
    >>> text_indentation("Let's print a new-line! Here goes:\nPrinted.")
    Let's print a new-line! Here goes:


    Printed.

Example 8:
    >>> text_indentation("\n\n\n We just printed three new lines.")

    We just printed three new lines.

Example 9:
    >>> text_indentation("A sneaky \n new line.")
    A sneaky
    new line.

Combo Example:
    >>> text_indentation("Lorem ipsum dolor sit amet, consectetur adipiscing "
                        "elit. Quonam modo? Utrum igitur tibi litteram videor an totas paginas "
                        "commovere? Non autem hoc: igitur ne illud quidem. Fortasse id optimum, "
                        "sed ubi illud: Plus semper voluptatis? Teneo, inquit, finem illi videri "
                        "nihil dolere. Transfer idem ad modestiam vel temperantiam, quae est "
                        "moderatio cupiditatum rationi oboediens. Si id dicis, vicimus. Inde "
                        "sermone vario sex illa a Dipylo stadia confecimus. Sin aliud quid "
                        "voles, postea. Quae animi affectio suum cuique tribuens atque hanc, "
                        "quam dico. Utinam quidem dicerent alium alio beatiorem! Iam ruinas "
                        "videres")
    Lorem ipsum dolor sit amet, consectetur adipiscing elit.

    Quonam modo?

    Utrum igitur tibi litteram videor an totas paginas commovere?

    Non autem hoc:

    igitur ne illud quidem.

    Fortasse id optimum, sed ubi illud:

    Plus semper voluptatis?

    Teneo, inquit, finem illi videri nihil dolere.

    Transfer idem ad modestiam vel temperantiam,
    quae est moderatio cupiditatum rationi oboediens.

    Si id dicis, vicimus.

    Inde sermone vario sex illa a Dipylo stadia confecimus.

    Sin aliud quid voles, postea.

    Quae animi affectio suum cuique tribuens atque hanc, quam dico.

    Utinam quidem dicerent alium alio beatiorem! Iam ruinas videres

Invalid Text
============

The parameter `text` must be a string. Otherwise, a TypeError is raised.

Example 1:
    >>> text_indentation(7)
    Traceback (most recent call last):
    TypeError: text must be a string

Example 2:
    >>> text_indentation({"one": 1, "two": 2})
    Traceback (most recent call last):
    TypeError: text must be a string

Example 3:
    >>> text_indentation(None)
    Traceback (most recent call last):
    TypeError: text must be a string
"""
